 &time_control
 run_days                            = 0,
 run_hours                           =24
 run_minutes                         = 0,
 run_seconds                         = 0,
 start_year                          =  2015, 2015, 2015, 2015
 start_month                         =  04, 04, 04, 04
 start_day                           =  10, 10, 10, 10
 start_hour                          =  12, 12, 12, 12
 start_minute                        = 00,   00,   00, 00,
 start_second                        = 00,   00,   00, 00,
 end_year                            =  2015, 2015, 2015, 2015
 end_month                           =  04, 04, 04, 04
 end_day                             =  11, 11, 11, 11
 end_hour                            =  12, 12, 12, 12
 end_minute                          = 00,   00,   00, 00,
 end_second                          = 00,   00,   00, 00,
 interval_seconds                    = 10800
 input_from_file                     = .true.,.true.,.true.,.true.,
 history_interval                    = 60,  60,   60, 60,
 frames_per_outfile                  = 24, 24, 24, 24,
 restart                             = .false.,
 restart_interval                    = 1440,
 io_form_history                     = 2
 io_form_restart                     = 2
 io_form_input                       = 2
 io_form_boundary                    = 2
 io_form_auxinput2		     = 2
 debug_level                         = 0
 adjust_output_times            = .true.
 iofields_filename 		= "~/run38/SSNlike/myoutfields.txt", "~/run38/SSNlike/myoutfields.txt", "~/run38/SSNlike/myoutfields.txt", "~/run38/SSNlike/myoutfieldsD4.txt",
 auxhist3_outname		= "Irradianced<domain>_<date>"
 io_form_auxhist3 		= 2
 frames_per_auxhist3		= 1,1,1,60
 auxhist3_interval 		= 10,10,10,1

/

 &domains
 time_step                           = 40,
 time_step_fract_num                 = 0,
 time_step_fract_den                 = 1,
 max_dom                             = 4,
 e_we                                = 121,121,121,130,
 e_sn                                = 121,121,121,121,
 e_vert                              = 35,    35,    35, 35,
 p_top_requested                     = 5000,
 num_metgrid_levels                  = 27,
 num_metgrid_soil_levels             = 4,
 dx                                  = 27000, 9000,  3000, 1000,
 dy                                  = 27000, 9000,  3000, 1000,
 grid_id                             = 1,     2,     3, 4,
 parent_id                           = 0,     1,     2, 3,
 i_parent_start                      =  1,40,40,45,
 j_parent_start                      =  1,40,40,45,
 parent_grid_ratio                   = 1,     3,     3, 3,
 parent_time_step_ratio              = 1,     3,     3, 3,
 feedback                            = 1,
 smooth_option                       = 0
 use_adaptive_time_step         = .true.
 target_cfl                     = 1.2, 1.2, 1.2, 1.2
 max_step_increase_pct          = 5, 51, 51, 51
 starting_time_step             = -1, -1, -1, -1
 max_time_step                  = -1, -1, -1, -1
 min_time_step                  = -1, -1, -1, -1
 adaptation_domain              = 1
 step_to_output_time            = .true.
 /

 &physics
 mp_physics                          = 16,     16,     7, 7,
 ra_lw_physics                       = 5,     5,     5, 5,
 ra_sw_physics                       = 1,     1,     1, 1,
 sf_sfclay_physics                   = 1,     1,     1, 1,
 sf_surface_physics                  = 2,     2,     2, 2,
 bl_pbl_physics                      = 1,     1,     1, 1,
 bldt                                = 0,     0,     0, 0,
 cu_physics                          = 1,     1,     1, 0,
kfeta_trigger = 2,
radt                                 = 27, 9, 3, 1,
 cudt                                = 5,   
 isfflx                              = 1,
 ifsnow                              = 1, 
 icloud                              = 1,
 surface_input_source                = 1, 
 num_soil_layers                     = 4,
 sf_urban_physics                    = 0,     0,     0, 0,
 slope_rad = 0,0,0,0,
 topo_shading = 	0,0,0,0,
 shadlen = 25000,
 sst_skin = 0,
 ishallow = 1,
 maxiens = 1,
 maxens = 3, 
 maxens2 = 3,
 maxens3 = 16, 
 ensdim = 144, 
 mp_zero_out = 0, 
 mp_zero_out_thresh = 1.e-8,
 gsfcgce_hail = 0,
 gsfcgce_2ice = 0,  
 seaice_threshold = 271,
 fractional_seaice = 0,
 rdmaxalb = .true., 
 rdlai2d = .false., 
 grav_settling = 0, 0, 0, 0,
 swrad_scat = 1, 
 ra_call_offset =  -1,
 cam_abs_freq_s = 21600,
 levsiz = 59,
 paerlev =  29,
 cam_abs_dim1 =  4,
 omlcall =  0,
 oml_hml0 = 50,
 oml_gamma = 0.14,
 !mommix = 0.5 
/

 &fdda
 /

 &dynamics
 w_damping                           = 0,
 diff_opt                            = 1,
 km_opt                              = 4,
 diff_6th_opt                        = 0,      0,      0, 0,
 diff_6th_factor                     = 0.12,   0.12,   0.12, 0.12,
 base_temp                           = 290.
 damp_opt                            = 0,
 zdamp                               = 5000.,  5000.,  5000., 5000.,
 dampcoef                            = 0.2,    0.2,    0.2, 0.2,
 khdif                               = 0,      0,      0, 0,
 kvdif                               = 0,      0,      0, 0,
 non_hydrostatic                     = .true., .true., .true.,.true.,
 moist_adv_opt                       = 1,      1,      1,   1,  
 scalar_adv_opt                      = 1,      1,      1,     1,
 /

 &bdy_control
 spec_bdy_width                      = 5,
 spec_zone                           = 1,
 relax_zone                          = 4,
 specified                           = .true., .false.,.false.,.false.,
 nested                              = .false., .true., .true.,.true.,
 /

 &grib2
 /

 &namelist_quilt
 nio_tasks_per_group = 2,
 nio_groups = 1,
 /
